61

Cs         0.00379       -0.04352       -0.00781
O          2.36374       -0.93442       -2.24054
H          2.99419       -1.27734       -1.57742
H          2.62032       -0.01894       -2.47283
O         -2.06908       -1.56626        2.13858
H         -2.61219       -2.02295        1.46738
H         -2.53896       -0.75302        2.41533
O          2.44762        2.26819        0.15139
H          3.07252        1.71640        0.66286
H          2.69389        2.22400       -0.79725
O         -3.01024        1.48701       -0.09815
H         -3.16851        1.46704        0.87008
H         -2.63447        2.35777       -0.33288
O         -1.33402       -0.15422       -3.03670
H         -2.26507       -0.36795       -2.84699
H         -0.89014       -0.95098       -3.38718
O         -0.51215       -3.20566       -0.90274
H         -0.31700       -3.14425       -1.85743
H         -1.47869       -3.22776       -0.78002
O          1.35922        0.10221        3.04549
H          1.12948       -0.79748        3.34787
H          2.30199        0.12186        2.80004
O         -1.42682        3.74287       -0.84672
H         -0.73980        3.92753       -0.16164
H         -1.81303        4.59324       -1.09483
O          1.54925       -3.17393        0.93314
H          1.14678       -3.07590        1.81882
H          0.82251       -3.36639        0.30167
O         -0.55700        2.08356        3.00610
H          0.17834        1.45456        3.17401
H         -0.19949        2.80609        2.45752
O          3.86168        0.31721        1.65380
H          4.72006        0.46196        2.07261
H          3.93326       -0.50990        1.11558
O         -3.25834       -2.70224       -0.20277
H         -3.94522       -3.38126       -0.18285
H         -3.59430       -1.96502       -0.76659
O         -0.01374        2.26910       -2.90754
H         -0.52904        2.85387       -2.32206
H         -0.56672        1.48224       -3.10476
O          2.57842        1.85835       -2.59189
H          3.11347        2.31710       -3.25211
H          1.62016        2.07015       -2.78654
O          0.56617        3.90765        1.06475
H          1.35037        3.38405        0.74094
H          0.90487        4.75389        1.38541
O          3.68825       -1.92979        0.08400
H          2.90548       -2.45385        0.43717
H          4.42207       -2.55292        0.00001
O         -2.95678        1.06436        2.64341
H         -3.58601        1.33377        3.32463
H         -2.07867        1.49383        2.86089
O          0.19036       -2.45930        3.31222
H         -0.71348       -2.21512        2.98788
H          0.07703       -3.02133        4.08908
O          0.39029       -2.34430       -3.44233
H          0.62689       -2.83025       -4.24219
H          1.20778       -1.89037       -3.11720
O         -3.85754       -0.45917       -1.70938
H         -4.71846       -0.29919       -2.11713
H         -3.65474        0.32679       -1.13313
